data_C8-BTBT

_cell_length_a                         5.927
_cell_length_b                         7.88
_cell_length_c                         29.18
_cell_angle_alpha                      90.000
_cell_angle_beta                       92.443
_cell_angle_gamma                      90.000
_cell_volume                           1362
 
loop_ 
 _atom_site_label 
 _atom_site_type_symbol 
 _atom_site_fract_x 
 _atom_site_fract_y 
 _atom_site_fract_z 
SA	S	0.2761	0.1127	0.46929
C1A	C	0.0884	0.0511	0.4242
C2A	C	0.1129	0.0776	0.3787
C3A	C	-0.0511	0.0207	0.3459
C4A	C	-0.2407	-0.0648	0.3632
C5A	C	-0.2692	-0.0909	0.4086
C6A	C	-0.1085	-0.0312	0.442
C7A	C	-0.0965	-0.0367	0.4898
c1A	C	-0.0317	0.0563	0.2965
c2A	C	0.1623	-0.0243	0.2724
c3A	C	0.183	0.0302	0.2234
c4A	C	0.375	-0.0365	0.1983
c5A	C	0.395	0.0276	0.1501
c6A	C	0.584	-0.036	0.123
c7A	C	0.597	0.027	0.0754
c8A	C	0.782	-0.032	0.0482
Sam	S	-0.2761	-0.1127	0.53071
C1Am	C	-0.0884	-0.0511	0.5758
C2Am	C	-0.1129	-0.0776	0.6213
C3Am	C	0.0511	-0.0207	0.6541
C4Am	C	0.2407	0.0648	0.6368
C5Am	C	0.2692	0.0909	0.5914
C6Am	C	0.1085	0.0312	0.558
C7Am	C	0.0965	0.0367	0.5102
c1Am	C	0.0317	-0.0563	0.7035
c2Am	C	-0.1623	0.0243	0.7276
c3Am	C	-0.183	-0.0302	0.7766
c4Am	C	-0.375	0.0365	0.8017
c5Am	C	-0.395	-0.0276	0.8499
c6Am	C	-0.584	0.036	0.877
c7Am	C	-0.597	-0.027	0.9246
c8Am	C	-0.782	0.032	0.9518
SB	S	0.7761	0.3873	0.46929
C1B	C	0.5884	0.4489	0.4242
C2B	C	0.6129	0.4224	0.3787
C3B	C	0.4489	0.4793	0.3459
C4B	C	0.2593	0.5648	0.3632
C5B	C	0.2308	0.5909	0.4086
C6B	C	0.3915	0.5312	0.442
C7B	C	0.4035	0.5367	0.4898
c1B	C	0.4683	0.4437	0.2965
c2B	C	0.6623	0.5243	0.2724
c3B	C	0.683	0.4698	0.2234
c4B	C	0.875	0.5365	0.1983
c5B	C	0.895	0.4724	0.1501
c6B	C	1.084	0.536	0.123
c7B	C	1.097	0.473	0.0754
c8B	C	1.282	0.532	0.0482
SBm	S	0.2239	0.6127	0.53071
C1Bm	C	0.4116	0.5511	0.5758
C2Bm	C	0.3871	0.5776	0.6213
C3Bm	C	0.5511	0.5207	0.6541
C4Bm	C	0.7407	0.4352	0.6368
C5Bm	C	0.7692	0.4091	0.5914
C6Bm	C	0.6085	0.4688	0.558
C7Bm	C	0.5965	0.4633	0.5102
c1Bm	C	0.5317	0.5563	0.7035
c2Bm	C	0.3377	0.4757	0.7276
c3Bm	C	0.317	0.5302	0.7766
c4Bm	C	0.125	0.4635	0.8017
c5Bm	C	0.105	0.5276	0.8499
c6Bm	C	-0.084	0.464	0.877
c7Bm	C	-0.097	0.527	0.9246
c8Bm	C	-0.282	0.468	0.9518